[TITLE]
;;Project Title/Notes

[OPTIONS]
;;Option             Value
FLOW_UNITS           CMS
INFILTRATION         MODIFIED_GREEN_AMPT
FLOW_ROUTING         KINWAVE
LINK_OFFSETS         DEPTH
MIN_SLOPE            0
ALLOW_PONDING        NO
SKIP_STEADY_STATE    NO

START_DATE           06/17/2022
START_TIME           00:00:00
REPORT_START_DATE    06/17/2022
REPORT_START_TIME    00:00:00
END_DATE             06/17/2022
END_TIME             12:00:00
SWEEP_START          01/01
SWEEP_END            12/31
DRY_DAYS             0
REPORT_STEP          00:15:00
WET_STEP             00:05:00
DRY_STEP             01:00:00
ROUTING_STEP         0:01:00 
RULE_STEP            00:00:00

INERTIAL_DAMPING     PARTIAL
NORMAL_FLOW_LIMITED  BOTH
FORCE_MAIN_EQUATION  H-W
VARIABLE_STEP        0.75
LENGTHENING_STEP     0
MIN_SURFAREA         1.167
MAX_TRIALS           8
HEAD_TOLERANCE       0.0015
SYS_FLOW_TOL         5
LAT_FLOW_TOL         5
MINIMUM_STEP         0.5
THREADS              1

[EVAPORATION]
;;Data Source    Parameters
;;-------------- ----------------
CONSTANT         0.0
DRY_ONLY         NO

[RAINGAGES]
;;Name           Format    Interval SCF      Source    
;;-------------- --------- ------ ------ ----------
Raingage2        INTENSITY 0:01     1.0      TIMESERIES test_series     

[SUBCATCHMENTS]
;;Name           Rain Gage        Outlet           Area     %Imperv  Width    %Slope   CurbLen  SnowPack        
;;-------------- ---------------- ---------------- -------- -------- -------- -------- -------- ----------------
S1               Raingage2        O4               82       15.0     2000.0   10.0     0                        
S2               Raingage2        J1               17       10.000000000000002 412.31056256176606 5.088435374149661 0                        
S3               Raingage2        J1               12       15.000000000000004 346.41016151377545 5.088435374149661 0                        
S4               Raingage2        J1               8        10.000000000000002 282.842712474619 5.088435374149661 0                        
S5               Raingage2        J1               32       25.000000000000007 565.685424949238 5.088435374149661 0                        
S6               Raingage2        J1               13       20.000000000000004 360.5551275463989 5.088435374149661 0                        

[SUBAREAS]
;;Subcatchment   N-Imperv   N-Perv     S-Imperv   S-Perv     PctZero    RouteTo    PctRouted 
;;-------------- ---------- ---------- ---------- ---------- ---------- ---------- ----------
S1               0.15       0.41       1.27       5.08       70         OUTLET    
S2               0.15       0.41       1.27       5.08       10         OUTLET    
S3               0.4        0.8        1.27       7.619999999999999 5          OUTLET    
S4               0.15       0.41       1.27       5.08       10         OUTLET    
S5               0.013      0.24       1.27       5.08       80         OUTLET    
S6               0.013      0.41       1.27       5.08       70         OUTLET    

[INFILTRATION]
;;Subcatchment   Param1     Param2     Param3     Param4     Param5    
;;-------------- ---------- ---------- ---------- ---------- ----------
S1               3.5        0.5        0.25       7          0         
S2               3.5        0.5        0.25       7          0         
S3               3.5        0.5        0.25       7          0         
S4               3.5        0.5        0.25       7          0         
S5               3.5        0.5        0.25       7          0         
S6               3.5        0.5        0.25       7          0         

[JUNCTIONS]
;;Name           Elevation  MaxDepth   InitDepth  SurDepth   Aponded   
;;-------------- ---------- ---------- ---------- ---------- ----------
J1               146.61     2.71       0          0          0         
J3               146.52     2.4        0          0          0         

[OUTFALLS]
;;Name           Elevation  Type       Stage Data       Gated    Route To        
;;-------------- ---------- ---------- ---------------- -------- ----------------
O4               146.20     FREE                        NO                       

[CONDUITS]
;;Name           From Node        To Node          Length     Roughness  InOffset   OutOffset  InitFlow   MaxFlow   
;;-------------- ---------------- ---------------- ---------- ---------- ---------- ---------- ---------- ----------
C3               J1               J3               50         0.01       0          0          0          0         
C4               J3               O4               50         0.015      0          0          0          0         

[XSECTIONS]
;;Link           Shape        Geom1            Geom2      Geom3      Geom4      Barrels    Culvert   
;;-------------- ------------ ---------------- ---------- ---------- ---------- ---------- ----------
C3               CIRCULAR     1                0          0          0          1                    
C4               CIRCULAR     1.2              0          0          0          1                    

[TIMESERIES]
;;Name           Date       Time       Value     
;;-------------- ---------- ---------- ----------
test_series                 0:01       25.25     
test_series                 0:02       25.25     
test_series                 0:03       25.25     
test_series                 0:04       25.25     
test_series                 0:05       25.25     
test_series                 0:06       25.25     
test_series                 0:07       25.25     
test_series                 0:08       25.25     
test_series                 0:09       25.25     
test_series                 0:10       25.25     
test_series                 0:11       25.25     
test_series                 0:12       25.25     
test_series                 0:13       25.25     
test_series                 0:14       25.25     
test_series                 0:15       25.25     
test_series                 0:16       25.25     
test_series                 0:17       25.25     
test_series                 0:18       25.25     
test_series                 0:19       25.25     
test_series                 0:20       25.25     
test_series                 0:21       25.25     
test_series                 0:22       25.25     
test_series                 0:23       25.25     
test_series                 0:24       25.25     

[REPORT]
;;Reporting Options
SUBCATCHMENTS ALL
NODES ALL
LINKS ALL

[TAGS]

[MAP]
DIMENSIONS 777170.879 592555.252 777209.449 592596.565
Units      Meters

[COORDINATES]
;;Node           X-Coord            Y-Coord           
;;-------------- ------------------ ------------------
J1               777189.014         592583.674        
J3               777197.821         592564.501        
O4               777203.103         592557.130        

[VERTICES]
;;Link           X-Coord            Y-Coord           
;;-------------- ------------------ ------------------

[Polygons]
;;   X          Y         
S1   777180.0   592590.0
S1   777180.0   592585.0
S1   777175.0   592585.0
S1   777175.0   592590.0
S2   777175.0   592585.0
S2   777175.0   592580.0
S2   777180.0   592580.0
S2   777180.0   592585.0
S3   777180.0   592580.0
S3   777180.0   592575.0
S3   777175.0   592575.0
S3   777175.0   592580.0
S4   777175.0   592575.0
S4   777175.0   592570.0
S4   777180.0   592570.0
S4   777180.0   592575.0
S5   777180.0   592570.0
S5   777180.0   592565.0
S5   777175.0   592565.0
S5   777175.0   592570.0
S6   777175.0   592565.0
S6   777175.0   592560.0
S6   777180.0   592560.0
S6   777180.0   592565.0

[SYMBOLS]
;;Gage           X-Coord            Y-Coord           
;;-------------- ------------------ ------------------
Raingage2        777181.540         592591.318        


[PROFILES]
;;Name           Links     
;;-------------- ----------
"654             " 1
