[TITLE]
Example 6
Circular Culvert with Roadway Overtopping
and Upstream Storage


[OPTIONS]
;;Options            Value
;;------------------ ------------
FLOW_UNITS           CFS
INFILTRATION         HORTON
FLOW_ROUTING         DYNWAVE
LINK_OFFSETS         DEPTH
MIN_SLOPE            0
ALLOW_PONDING        NO
SKIP_STEADY_STATE    NO
START_DATE           06/08/2015
START_TIME           00:00:00
REPORT_START_DATE    06/08/2015
REPORT_START_TIME    00:00:00
END_DATE             06/08/2015
END_TIME             05:00:00
SWEEP_START          01/01
SWEEP_END            12/31
DRY_DAYS             0
REPORT_STEP          00:07:30
WET_STEP             00:05:00
DRY_STEP             01:00:00
ROUTING_STEP         5
RULE_STEP            00:00:00
INERTIAL_DAMPING     PARTIAL
NORMAL_FLOW_LIMITED  BOTH
FORCE_MAIN_EQUATION  H-W
VARIABLE_STEP        0.75
LENGTHENING_STEP     0
MIN_SURFAREA         12.557
MAX_TRIALS           8
HEAD_TOLERANCE       0.005
SYS_FLOW_TOL         5
LAT_FLOW_TOL         5
MINIMUM_STEP         0.5
THREADS              1

[EVAPORATION]
;;Type          Parameters
;;------------- ----------
CONSTANT     0.0
DRY_ONLY     NO

[JUNCTIONS]
;;               Invert     Max.       Init.      Surcharge  Ponded    
;;Name           Elev.      Depth      Depth      Depth      Area      
;;-------------- ---------- ---------- ---------- ---------- ----------
Outlet           868        0          0          0          0         

[OUTFALLS]
;;               Invert     Outfall      Stage/Table      Tide
;;Name           Elev.      Type         Time Series      Gate Route To        
;;-------------- ---------- ------------ ---------------- ---- ----------------
TailWater        858        FIXED        859.5            NO                   

[STORAGE]
;;               Invert   Max.     Init.    Storage    Curve                               Evap.   
;;Name           Elev.    Depth    Depth    Curve      Params                              Frac.    Infiltration parameters
;;-------------- -------- -------- -------- ---------- -------- -------- -------- -------- -------- -----------------------
Inlet            878      9        0        TABULAR    StorageCurve               0        0       

[CONDUITS]
;;               Inlet            Outlet                      Manning    Inlet      Outlet     Init.      Max.      
;;Name           Node             Node             Length     N          Offset     Offset     Flow       Flow      
;;-------------- ---------------- ---------------- ---------- ---------- ---------- ---------- ---------- ----------
Channel          Outlet           TailWater        200        0.03       0          0          0          0         
Culvert          Inlet            Outlet           200        0.014      0          0          0          0         

[WEIRS]
;;               Inlet            Outlet           Weir         Crest      Disch.     Flap End      End       
;;Name           Node             Node             Type         Height     Coeff.     Gate Con.     Coeff.     Surcharge  RoadWidth  RoadSurf   Coeff. Curve
;;-------------- ---------------- ---------------- ------------ ---------- ---------- ---- -------- ---------- ---------- ---------- ---------- ----------------
Roadway          Inlet            Outlet           ROADWAY      9          3.33       NO   0        0          NO         40         GRAVEL    

[XSECTIONS]
;;Link           Shape        Geom1            Geom2      Geom3      Geom4      Barrels   
;;-------------- ------------ ---------------- ---------- ---------- ---------- ----------
Channel          TRAPEZOIDAL  9                10         2          2          1                    
Culvert          CIRCULAR     3                0          0          0          2          4         
Roadway          RECT_OPEN    50               200        0          0         

[LOSSES]
;;Link           Inlet      Outlet     Average    Flap Gate  SeepageRate
;;-------------- ---------- ---------- ---------- ---------- ----------

[INFLOWS]
;;                                                 Param    Units    Scale    Baseline Baseline
;;Node           Parameter        Time Series      Type     Factor   Factor   Value    Pattern
;;-------------- ---------------- ---------------- -------- -------- -------- -------- --------
Inlet            FLOW             Inflow           FLOW     1.0      1.0                       

[CURVES]
;;Name           Type       X-Value    Y-Value   
;;-------------- ---------- ---------- ----------
StorageCurve     Storage    0          0         
StorageCurve                2          9583      
StorageCurve                4          33977     
StorageCurve                6          72310     
StorageCurve                8          136778    

[TIMESERIES]
;;Name           Date       Time       Value     
;;-------------- ---------- ---------- ----------
Inflow                      0          0         
Inflow                      .125       9         
Inflow                      .25        10        
Inflow                      .375       11        
Inflow                      .5         13        
Inflow                      .625       17        
Inflow                      .75        28        
Inflow                      .875       40        
Inflow                      1          80        
Inflow                      1.125      136       
Inflow                      1.25       190       
Inflow                      1.375      220       
Inflow                      1.5        220       
Inflow                      1.625      201       
Inflow                      1.75       170       
Inflow                      1.875      140       
Inflow                      2          120       
Inflow                      2.125      98        
Inflow                      2.25       82        
Inflow                      2.375      70        
Inflow                      2.5        60        
Inflow                      2.625      53        
Inflow                      2.75       47        
Inflow                      2.875      41        

[REPORT]
INPUT      NO
CONTROLS   NO
SUBCATCHMENTS ALL
NODES ALL
LINKS ALL

[TAGS]

[MAP]
DIMENSIONS       1408.9383        6118.83065       6238.6797        7216.52835      
UNITS            None

[COORDINATES]
;;Node           X-Coord          Y-Coord         
;;-------------- ---------------- ----------------
Outlet           4206.542         6357.994        
TailWater        6019.146         6168.726        
Inlet            1628.472         6476.537        

[VERTICES]
;;Link           X-Coord          Y-Coord         
;;-------------- ---------------- ----------------
Roadway          2311.068         7166.633        
Roadway          3762.491         7151.463        

[LABELS]
;;X-Coord        Y-Coord          Label           
1651.426         7755.664         "Circular Culvert with Roadway Overtopping and Upstream Storage"  "Arial" 12 1 1

