[TITLE]
;;Project Title/Notes
Model with state plane coordinates: init=EPSG:2817

[OPTIONS]
;;Option             Value
FLOW_UNITS           MGD
INFILTRATION         HORTON
FLOW_ROUTING         DYNWAVE
LINK_OFFSETS         DEPTH
MIN_SLOPE            0
ALLOW_PONDING        YES
SKIP_STEADY_STATE    NO

START_DATE           01/01/2001
START_TIME           00:00:00
REPORT_START_DATE    01/01/2001
REPORT_START_TIME    00:00:00
END_DATE             01/02/2001
END_TIME             00:00:00
SWEEP_START          01/01
SWEEP_END            12/31
DRY_DAYS             0
REPORT_STEP          00:05:00
WET_STEP             00:05:00
DRY_STEP             01:00:00
ROUTING_STEP         0:00:05 

INERTIAL_DAMPING     NONE
NORMAL_FLOW_LIMITED  BOTH
FORCE_MAIN_EQUATION  H-W
VARIABLE_STEP        0.75
LENGTHENING_STEP     15
MIN_SURFAREA         12.557
MAX_TRIALS           8
HEAD_TOLERANCE       0.005
SYS_FLOW_TOL         5
LAT_FLOW_TOL         5
MINIMUM_STEP         0
THREADS              4

[EVAPORATION]
;;Data Source    Parameters
;;-------------- ----------------
CONSTANT         0.0
DRY_ONLY         NO

[RAINGAGES]
;;Name           Format    Interval SCF      Source    
;;-------------- --------- ------ ------ ----------
RG1              INTENSITY 1:00     1.0      TIMESERIES design-storm    

[SUBCATCHMENTS]
;;Name           Rain Gage        Outlet           Area     %Imperv  Width    %Slope   CurbLen  SnowPack        
;;-------------- ---------------- ---------------- -------- -------- -------- -------- -------- ----------------
S2-028           RG1              J2-028           5        25       500      0.5      0                        
S2-092           RG1              J2-092           5        25       500      0.5      0                        

[SUBAREAS]
;;Subcatchment   N-Imperv   N-Perv     S-Imperv   S-Perv     PctZero    RouteTo    PctRouted 
;;-------------- ---------- ---------- ---------- ---------- ---------- ---------- ----------
S2-028           0.01       0.1        0.05       0.05       25         OUTLET    
S2-092           0.01       0.1        0.05       0.05       25         OUTLET    

[INFILTRATION]
;;Subcatchment   MaxRate    MinRate    Decay      DryTime    MaxInfil  
;;-------------- ---------- ---------- ---------- ---------- ----------
S2-028           3.0        0.5        4          7          0         
S2-092           3.0        0.5        4          7          0         

[JUNCTIONS]
;;Name           Elevation  MaxDepth   InitDepth  SurDepth   Aponded   
;;-------------- ---------- ---------- ---------- ---------- ----------
J1-025           970.46     12.938     0          0          0         
J1-026           964.901    3.25       0          0          0         
J1-027           959.417    10.365     0          0          0         
J1-028           955.448    4          0          0          0         
J1-029           952.175    18.9       0          0          0         
J1-030           951.287    8.713      0          0          0         
J1-031           947.276    10.334     0          0          0         
J1-032           936.946    4.054      0          0          0         
J1-036           935.542    11.957     0          0          0         
J1-038           935.788    3.667      0          0          0         
J1-039           937.293    3.9        0          0          0         
J1-067           954.45     3          0          0          0         
J1-189           942.326    7.674      0          0          0         
J1-216           956.079    13.3       0          0          0         
J1-277           931.49     45.645     0          0          0         
J1-278           928.518    64.568     0          0          0         
J4-001           934.496    6.504      0          0          0         
J2-026           981.84     3          0          0          0         
J2-027           979.97     3.5        0          0          0         
J2-028           977.153    3.25       0          0          0         
J2-060           965.184    15.441     0          0          0         
J2-061           971.784    8.9        0          0          0         
J2-062           977.752    6.2        0          0          0         
J2-063           983.343    2.833      0          0          0         
J2-064           986.637    4.9        0          0          0         
J2-065           988.682    3          0          0          0         
J2-092           1004.909   3.2        0          0          0         
J2-093           1007.631   7          0          0          358868.014
J2-094           1012.3     10.1       0          0          0         
J2-317           976.869    3.5        0          0          0         
J2-369           963        3          0          0          0         

[OUTFALLS]
;;Name           Elevation  Type       Stage Data       Gated    Route To        
;;-------------- ---------- ---------- ---------------- -------- ----------------
J3-485           925.661    FREE                        NO                       

[STORAGE]
;;Name           Elev.    MaxDepth   InitDepth  Shape      Curve Name/Params            N/A      Fevap    Psi      Ksat     IMD     
;;-------------- -------- ---------- ----------- ---------- ---------------------------- -------- --------          -------- --------
J1-035           935.442  11.3       0          FUNCTIONAL 15        0         0        0        0       
J1-037           935.712  13.707     0          FUNCTIONAL 13.72     0         0        0        0       
J1-188           965.823  10         0          FUNCTIONAL 62.68     0         0        0        0       
J1-192           949.631  10.5       0          FUNCTIONAL 15        0         0        0        0       
J1-194           947.409  10.6       0          FUNCTIONAL 15        0         0        0        0       
J2-023           982.636  17.006     0          FUNCTIONAL 15        0         0        0        0       
J2-024           987.421  10         0          FUNCTIONAL 15        0         0        0        0       
J2-095           1017.919 11.3       0          FUNCTIONAL 15        0         0        0        0       
J2-260           978.662  15.8       0          FUNCTIONAL 15        0         0        0        0       
J2-381           1008.579 16.5       0          FUNCTIONAL 15        0         0        0        0       
J2-411           995.249  9.6        0          FUNCTIONAL 6.44      0         0        0        0       
J2-412           1000.978 12.9       0          FUNCTIONAL 22.48     0         0        0        0       
J2-416           979.917  16.3       0          FUNCTIONAL 15        0         0        0        0       

[CONDUITS]
;;Name           From Node        To Node          Length     Roughness  InOffset   OutOffset  InitFlow   MaxFlow   
;;-------------- ---------------- ---------------- ---------- ---------- ---------- ---------- ---------- ----------
J1-025.1         J1-025           J1-026           309.456216 0.014      0          0          0          0         
J1-026.1         J1-026           J1-027           396.446535 0.014      0          0          0          0         
J1-027.1         J1-027           J1-028           279.73     0.014      0          0          0          0         
J1-028.1         J1-028           J1-029           226.229    0.014      0          0          0          0         
J1-029.1         J1-029           J1-030           143.06     0.014      0          0          0          0         
J1-030.1         J1-030           J1-192           266.725    0.014      0          0          0          0         
J1-031.1         J1-031           J1-189           246.042    0.014      0          0          0          0         
J1-032.1         J1-032           J4-001           80.809     0.014      0          0          0          0         
J1-035.1         J1-035           J4-001           197.678    0.014      0          0          0          0         
J1-036.1         J1-036           J1-035           129.83     0.014      0          0          0          0         
J1-037.1         J1-037           J1-036           220.238    0.014      0          0          0          0         
J1-038.1         J1-038           J1-037           98.132     0.014      0          0          0          0         
J1-039.1         J1-039           J1-038           382.176    0.014      0          0          0          0         
J1-067.1         J1-067           J1-029           172.302    0.014      0          0          0          0         
J1-188.1         J1-188           J1-189           67.271     0.014      0          0          0          0         
J1-189.1         J1-189           J1-032           177.446    0.014      0          0          0          0         
J1-192.1         J1-192           J1-031           117.044    0.014      0          0          0          0         
J1-194.1         J1-194           J4-001           89.805     0.014      0          0          0          0         
J1-216.1         J1-216           J1-067           167.519    0.014      0          0          0          0         
J1-277.1         J1-277           J1-278           621.326    0.014      0          0          0          0         
J1-278.1         J1-278           J3-485           597.283    0.014      0          0          0          0         
J4-001.1         J4-001           J1-277           628.582    0.014      0          0          0          0         
J2-023.1         J2-023           J2-026           231.522393 0.014      0          0.1        0          0         
J2-024.1         J2-024           J2-026           130.525759 0.014      0          0.699533   0          0         
J2-026.1         J2-026           J2-027           233.727346 0.014      0          0.2        0          0         
J2-027.1         J2-027           J2-028           398.817384 0.014      0          0.6        0          0         
J2-028.1         J2-028           J1-025           372.551576 0.014      0          0          0          0         
J2-060.1         J2-060           J2-369           105.311    0.014      0          0          0          0         
J2-061.1         J2-061           J2-060           377.118    0.014      0          0          0          0         
J2-062.1         J2-062           J2-317           46.138     0.014      0          0          0          0         
J2-063.1         J2-063           J2-416           174.356    0.014      0          0          0          0         
J2-064.1         J2-064           J2-063           90.203     0.014      0          0          0          0         
J2-065.1         J2-065           J2-064           186.539    0.014      0          0          0          0         
J2-092.1         J2-092           J2-412           116.239293 0.014      0          0.1        0          0         
J2-093.1         J2-093           J2-092           327.796087 0.014      0          0.2        0          0         
J2-094.1         J2-094           J2-381           196.699327 0.014      0          0.1        0          0         
J2-095.1         J2-095           J2-094           389.926379 0.014      0          0.5        0          0         
J2-260.1         J2-260           J2-062           36.421     0.014      0          0          0          0         
J2-317.1         J2-317           J2-061           258.691    0.014      0          0          0          0         
J2-369.1         J2-369           J1-216           155.962    0.014      0          0          0          0         
J2-381.1         J2-381           J2-093           182.109605 0.014      0          0.2        0          0         
J2-411.1         J2-411           J2-065           138.412    0.014      0          0          0          0         
J2-412.1         J2-412           J2-411           144.174    0.014      0          0          0          0         
J2-416.1         J2-416           J2-260           109.265    0.014      0          0          0          0         

[XSECTIONS]
;;Link           Shape        Geom1            Geom2      Geom3      Geom4      Barrels    Culvert   
;;-------------- ------------ ---------------- ---------- ---------- ---------- ---------- ----------
J1-025.1         CIRCULAR     1.25             0          0          0          1                    
J1-026.1         CIRCULAR     1.25             0          0          0          1                    
J1-027.1         CIRCULAR     1.25             0          0          0          1                    
J1-028.1         CIRCULAR     1.25             0          0          0          1                    
J1-029.1         CIRCULAR     1.25             0          0          0          1                    
J1-030.1         CIRCULAR     1.5              0          0          0          1                    
J1-031.1         CIRCULAR     1.5              0          0          0          1                    
J1-032.1         CIRCULAR     1.5              0          0          0          1                    
J1-035.1         CIRCULAR     1.66667          0          0          0          1                    
J1-036.1         CIRCULAR     1.75             0          0          0          1                    
J1-037.1         CIRCULAR     1.66667          0          0          0          1                    
J1-038.1         CIRCULAR     1.66667          0          0          0          1                    
J1-039.1         CIRCULAR     1.66667          0          0          0          1                    
J1-067.1         CIRCULAR     1                0          0          0          1                    
J1-188.1         CIRCULAR     0.666667         0          0          0          1                    
J1-189.1         CIRCULAR     1.5              0          0          0          1                    
J1-192.1         CIRCULAR     1.5              0          0          0          1                    
J1-194.1         CIRCULAR     0.666667         0          0          0          1                    
J1-216.1         CIRCULAR     0.833333         0          0          0          1                    
J1-277.1         CIRCULAR     1.33333          0          0          0          1                    
J1-278.1         CIRCULAR     1.33333          0          0          0          1                    
J4-001.1         CIRCULAR     1.33333          0          0          0          1                    
J2-023.1         CIRCULAR     1                0          0          0          1                    
J2-024.1         CIRCULAR     0.666667         0          0          0          1                    
J2-026.1         CIRCULAR     1                0          0          0          1                    
J2-027.1         CIRCULAR     1                0          0          0          1                    
J2-028.1         CIRCULAR     1.25             0          0          0          1                    
J2-060.1         CIRCULAR     0.833333         0          0          0          1                    
J2-061.1         CIRCULAR     0.833333         0          0          0          1                    
J2-062.1         CIRCULAR     0.833333         0          0          0          1                    
J2-063.1         CIRCULAR     0.833333         0          0          0          1                    
J2-064.1         CIRCULAR     0.833333         0          0          0          1                    
J2-065.1         CIRCULAR     1                0          0          0          1                    
J2-092.1         CIRCULAR     1                0          0          0          1                    
J2-093.1         CIRCULAR     1                0          0          0          1                    
J2-094.1         CIRCULAR     1                0          0          0          1                    
J2-095.1         CIRCULAR     0.833333         0          0          0          1                    
J2-260.1         CIRCULAR     0.833333         0          0          0          1                    
J2-317.1         CIRCULAR     0.833333         0          0          0          1                    
J2-369.1         CIRCULAR     1                0          0          0          1                    
J2-381.1         CIRCULAR     1                0          0          0          1                    
J2-411.1         CIRCULAR     1                0          0          0          1                    
J2-412.1         CIRCULAR     1                0          0          0          1                    
J2-416.1         CIRCULAR     0.833333         0          0          0          1                    

[LOSSES]
;;Link           Kentry     Kexit      Kavg       Flap Gate  Seepage   
;;-------------- ---------- ---------- ---------- ---------- ----------
J1-025.1         0.15       0.015      0          NO         0         
J1-026.1         0.15       0.015      0          NO         0         
J1-027.1         0.150      0.015      0.000      NO         0         
J1-028.1         0.150      0.015      0.000      NO         0         
J1-029.1         0.150      0.015      0.000      NO         0         
J1-030.1         0.150      0.015      0.000      NO         0         
J1-031.1         0.150      0.015      0.000      NO         0         
J1-032.1         0.150      0.015      0.000      NO         0         
J1-035.1         0.150      0.015      0.000      NO         0         
J1-036.1         0.150      0.015      0.000      NO         0         
J1-037.1         0.150      0.015      0.000      NO         0         
J1-038.1         0.150      0.015      0.000      NO         0         
J1-039.1         0.150      0.015      0.000      NO         0         
J1-067.1         0.150      0.015      0.000      NO         0         
J1-188.1         0.150      0.015      0.000      NO         0         
J1-189.1         0.150      0.015      0.000      NO         0         
J1-192.1         0.150      0.015      0.000      NO         0         
J1-194.1         0.150      0.015      0.000      NO         0         
J1-216.1         0.150      0.015      0.000      NO         0         
J1-277.1         0.150      0.015      0.000      NO         0         
J1-278.1         0.150      0.015      0.000      NO         0         
J4-001.1         0.150      0.015      0.000      NO         0         
J2-023.1         0.15       0.015      0          NO         0         
J2-024.1         0.15       0.015      0          NO         0         
J2-026.1         0.15       0.015      0          NO         0         
J2-027.1         0.15       0.015      0          NO         0         
J2-028.1         0.15       0.015      0          NO         0         
J2-060.1         0.150      0.015      0.000      NO         0         
J2-061.1         0.150      0.015      0.000      NO         0         
J2-062.1         0.150      0.015      0.000      NO         0         
J2-063.1         0.150      0.015      0.000      NO         0         
J2-064.1         0.150      0.015      0.000      NO         0         
J2-065.1         0.150      0.015      0.000      NO         0         
J2-092.1         0.15       0.015      0          NO         0         
J2-093.1         0.15       0.015      0          NO         0         
J2-094.1         0.15       0.015      0          NO         0         
J2-095.1         0.15       0.015      0          NO         0         
J2-260.1         0.150      0.015      0.000      NO         0         
J2-317.1         0.150      0.015      0.000      NO         0         
J2-369.1         0.150      0.015      0.000      NO         0         
J2-381.1         0.15       0.015      0          NO         0         
J2-411.1         0.150      0.015      0.000      NO         0         
J2-412.1         0.150      0.015      0.000      NO         0         
J2-416.1         0.150      0.015      0.000      NO         0         

[CURVES]
;;Name           Type       X-Value    Y-Value   
;;-------------- ---------- ---------- ----------
10Pct            Control    0          0         
10Pct                       0.0001     0.00001   
10Pct                       1000       100       

[TIMESERIES]
;;Name           Date       Time       Value     
;;-------------- ---------- ---------- ----------
design-storm     01/01/2001 0:00       0         
design-storm     01/01/2001 1:00       0.1       
design-storm     01/01/2001 2:00       0.2       
design-storm     01/01/2001 3:00       0.5       
design-storm     01/01/2001 4:00       0.1       
design-storm     01/01/2001 5:00       0.1       
design-storm     01/01/2001 6:00       0         

[REPORT]
;;Reporting Options
INPUT      NO
CONTROLS   YES
SUBCATCHMENTS ALL
NODES ALL
LINKS ALL

[TAGS]

[MAP]
DIMENSIONS 2745633.581 1116753.856 2749263.293 1121885.086
Units      Feet

[COORDINATES]
;;Node           X-Coord            Y-Coord           
;;-------------- ------------------ ------------------
J1-025           2746229.223        1118867.764       
J1-026           2746461.473        1118663.257       
J1-027           2746856.153        1118625.871       
J1-028           2747123.145        1118542.417       
J1-029           2747345.325        1118499.807       
J1-030           2747386.555        1118362.817       
J1-031           2747346.755        1117981.616       
J1-032           2747497.165        1117585.915       
J1-036           2747415.291        1117346.533       
J1-038           2747443.875        1117029.454       
J1-039           2747064.054        1116987.094       
J1-067           2747318.706        1118670.041       
J1-189           2747439.603        1117753.766       
J1-216           2747387.755        1118822.668       
J1-277           2747879.996        1117314.179       
J1-278           2748501.155        1117299.773       
J4-001           2747554.404        1117642.958       
J2-026           2745913.292        1119788.430       
J2-027           2745957.229        1119558.869       
J2-028           2746195.091        1119238.749       
J2-060           2747509.230        1119052.239       
J2-061           2747459.006        1119425.998       
J2-062           2747420.246        1119720.944       
J2-063           2747391.384        1120038.541       
J2-064           2747301.385        1120044.601       
J2-065           2747307.780        1120231.031       
J2-092           2747081.739        1120559.194       
J2-093           2747082.271        1120886.990       
J2-094           2747085.761        1121265.773       
J2-317           2747448.509        1119684.475       
J2-369           2747448.112        1118966.478       
J3-485           2749098.306        1117287.218       
J1-035           2747473.260        1117462.702       
J1-037           2747435.935        1117127.264       
J1-188           2747376.384        1117730.771       
J1-192           2747349.945        1118098.616       
J1-194           2747634.172        1117684.214       
J2-023           2745798.568        1119989.529       
J2-024           2746022.418        1119860.043       
J2-095           2747083.513        1121651.848       
J2-260           2747420.304        1119757.365       
J2-381           2747082.567        1121069.099       
J2-411           2747222.993        1120340.434       
J2-412           2747143.725        1120460.861       
J2-416           2747420.480        1119866.630       

[VERTICES]
;;Link           X-Coord            Y-Coord           
;;-------------- ------------------ ------------------
J4-001.1         2747611.601        1117575.004       
J4-001.1         2747699.029        1117568.279       
J4-001.1         2747688.935        1117307.575       
J2-095.1         2747086.665        1121652.483       

[Polygons]
;;Subcatchment   X-Coord            Y-Coord           
;;-------------- ------------------ ------------------
S2-028           2746267.361        1119205.333       
S2-028           2746733.836        1119701.584       
S2-028           2746363.029        1120048.372       
S2-092           2746565.169        1120521.021       
S2-092           2746996.417        1120396.623       
S2-092           2746902.427        1120692.415       

[SYMBOLS]
;;Gage           X-Coord            Y-Coord           
;;-------------- ------------------ ------------------
RG1              2745324.485        1121021.610       

