[TITLE]
;;Project Title/Notes

[OPTIONS]
;;Option             Value
FLOW_UNITS           CFS
INFILTRATION         GREEN_AMPT
FLOW_ROUTING         DYNWAVE
LINK_OFFSETS         DEPTH
MIN_SLOPE            0
ALLOW_PONDING        NO
SKIP_STEADY_STATE    NO

START_DATE           08/08/2014
START_TIME           00:00:00
REPORT_START_DATE    08/08/2014
REPORT_START_TIME    00:00:00
END_DATE             08/08/2014
END_TIME             23:54:00
SWEEP_START          01/01
SWEEP_END            12/31
DRY_DAYS             0
REPORT_STEP          00:05:00
WET_STEP             00:06:00
DRY_STEP             24:00:00
ROUTING_STEP         0:00:15 
RULE_STEP            00:00:00

INERTIAL_DAMPING     PARTIAL
NORMAL_FLOW_LIMITED  BOTH
FORCE_MAIN_EQUATION  H-W
VARIABLE_STEP        0.75
LENGTHENING_STEP     0
MIN_SURFAREA         12.566
MAX_TRIALS           8
HEAD_TOLERANCE       0.005
SYS_FLOW_TOL         5
LAT_FLOW_TOL         5
MINIMUM_STEP         0.5
THREADS              2

[EVAPORATION]
;;Data Source    Parameters
;;-------------- ----------------
CONSTANT         0.0
DRY_ONLY         NO



[SUBCATCHMENTS]
;;Name           Rain Gage        Outlet           Area     %Imperv  Width    %Slope   CurbLen  SnowPack        
;;-------------- ---------------- ---------------- -------- -------- -------- -------- -------- ----------------
S10              SCS_Type_II_2.95in_1yr E133475          0.287    90.501   88.547   2.927    0                        
S11              SCS_Type_II_2.95in_1yr F1306013         0.5901   97.381   153.113  3.131    0                        
S116_2           SCS_Type_II_2.95in_1yr F133459          2.8625   93.737   246.982  1.317    0                        


[SUBAREAS]
;;Subcatchment   N-Imperv   N-Perv     S-Imperv   S-Perv     PctZero    RouteTo    PctRouted 
;;-------------- ---------- ---------- ---------- ---------- ---------- ---------- ----------
S10              0.011      0.15       0.075      0.15       25         OUTLET    
S11              0.011      0.151      0.075      0.151      25         OUTLET    
S116_2           0.011      0.152      0.075      0.151      25         OUTLET    


[INFILTRATION]
;;Subcatchment   Param1     Param2     Param3     Param4     Param5    
;;-------------- ---------- ---------- ---------- ---------- ----------
S10              4.33       0.43       0.368      0          0         
S11              4.33       0.43       0.368      0          0         
S116_2           4.33       0.43       0.368      0          0         


[JUNCTIONS]
;;Name           Elevation  MaxDepth   InitDepth  SurDepth   Aponded   
;;-------------- ---------- ---------- ---------- ---------- ----------
07-0077          7          3.388      0          0          0         
E133464          3.93       4.541      0          0          0         
E133465          4.79       3.673      0          0          0         


[OUTFALLS]
;;Name           Elevation  Type       Stage Data       Gated    Route To        
;;-------------- ---------- ---------- ---------------- -------- ----------------
E143250          -3.54      FREE                        NO                       
E147007          -3.54      FREE                        NO                       
J1               0.5        FREE                        NO                       

[CONDUITS]
;;Name           From Node        To Node          Length     Roughness  InOffset   OutOffset  InitFlow   MaxFlow   
;;-------------- ---------------- ---------------- ---------- ---------- ---------- ---------- ---------- ----------
100              F133462          F133461          152.478    0.013      0          0          0          0         
1000             UN18             UN19             70.134     0.013      0          0          0          0         
1001             E133487          UN19             32.396     0.013      0          0          0          0         

[XSECTIONS]
;;Link           Shape        Geom1            Geom2      Geom3      Geom4      Barrels    Culvert   
;;-------------- ------------ ---------------- ---------- ---------- ---------- ---------- ----------
100              CIRCULAR     1.5              0          0          0          1                    
1000             CIRCULAR     0.5              0          0          0          1                    
1001             CIRCULAR     1.25             0          0          0          1                    


[POLLUTANTS]
;;Name           Units  Crain      Cgw        Crdii      Kdecay     SnowOnly   Co-Pollutant     Co-Frac    Cdwf       Cinit     
;;-------------- ------ ---------- ---------- ---------- ---------- ---------- ---------------- ---------- ---------- ----------
TSS              MG/L   0          0          0          0          NO         *                0.0        0          0         

[LANDUSES]
;;               Sweeping   Fraction   Last      
;;Name           Interval   Available  Swept     
;;-------------- ---------- ---------- ----------
Imperv           0          0          0         
Trees            0          0          0         
TurfGrass        0          0          0         
Water            0          0          0         

[COVERAGES]
;;Subcatchment   Land Use         Percent   
;;-------------- ---------------- ----------

[LOADINGS]
;;Subcatchment   Pollutant        Buildup   
;;-------------- ---------------- ----------

[BUILDUP]
;;Land Use       Pollutant        Function   Coeff1     Coeff2     Coeff3     Per Unit  
;;-------------- ---------------- ---------- ---------- ---------- ---------- ----------
Imperv           TSS              POW        150.16     0.364      1.54       AREA      
Trees            TSS              POW        9.22       0.133      0.87       AREA      
TurfGrass        TSS              POW        62.00      0.325      1.26       AREA      
Water            TSS              NONE       0.0        0.0        0.0        AREA      

[WASHOFF]
;;Land Use       Pollutant        Function   Coeff1     Coeff2     SweepRmvl  BmpRmvl   
;;-------------- ---------------- ---------- ---------- ---------- ---------- ----------
Imperv           TSS              EXP        6.97       1.57       0.0        0.0       
Trees            TSS              EXP        2.11       1.02       0.0        0.0       
TurfGrass        TSS              EXP        5.91       1.46       0.0        0.0       
Water            TSS              EMC        0.0        0.0        0.0        0.0       


[REPORT]
;;Reporting Options
INPUT      YES
SUBCATCHMENTS ALL
NODES ALL
LINKS ALL



[MAP]
DIMENSIONS 12128089.690 3478401.165 12132756.742 3483634.683
Units      Feet

[COORDINATES]
;;Node           X-Coord            Y-Coord           
;;-------------- ------------------ ------------------
07-0077          12130038.323       3482853.175       
E133464          12130985.455       3482562.384       
E133465          12131004.000       3482585.710       


[Polygons]
;;Subcatchment   X-Coord            Y-Coord           
;;-------------- ------------------ ------------------
S10              12130542.043       3482921.687       
S10              12130534.318       3482942.886       
S10              12130540.557       3482963.029       
S10              12130552.164       3482968.182       
S10              12130572.082       3482961.738       
S10              12130686.006       3482925.471       
S10              12130712.261       3482921.687       
S10              12130712.261       3482911.674       
S10              12130706.110       3482887.786       
S10              12130676.522       3482877.323       
S10              12130645.388       3482858.393       
S10              12130621.598       3482852.145       
S10              12130582.094       3482851.597       
S10              12130567.046       3482865.492       
S10              12130566.361       3482906.169       
S10              12130542.043       3482921.687       
S11              12131343.067       3482921.687       
S11              12131353.080       3482951.725       
S11              12131411.436       3482944.528       
S11              12131435.343       3482959.362       
S11              12131451.497       3482959.792       
S11              12131489.387       3482937.840       
S11              12131528.695       3482897.046       
S11              12131567.671       3482875.945       
S11              12131659.155       3482867.301       
S11              12131698.981       3482837.272       
S11              12131700.702       3482823.270       
S11              12131683.502       3482801.533       
S11              12131633.986       3482800.986       
S11              12131602.227       3482793.789       
S11              12131573.479       3482797.974       
S11              12131561.745       3482792.909       
S11              12131553.336       3482781.508       
S11              12131507.164       3482805.425       
S11              12131497.796       3482815.868       
S11              12131500.886       3482860.319       
S11              12131488.927       3482877.304       
S11              12131453.208       3482888.206       
S11              12131363.093       3482881.636       
S11              12131345.453       3482894.034       
S11              12131343.067       3482921.687       
S116_2           12131802.536       3482570.374       
S116_2           12131813.669       3482515.722       
S116_2           12131813.669       3482431.060       
S116_2           12131813.669       3482421.047       
S116_2           12131551.615       3482382.716       
S116_2           12131495.645       3482378.610       
S116_2           12131495.385       3482378.356       
S116_2           12131425.394       3482401.199       
S116_2           12131386.196       3482413.284       
S116_2           12131387.543       3482418.789       
S116_2           12131388.644       3482418.533       
S116_2           12131392.514       3482428.502       
S116_2           12131397.427       3482437.814       
S116_2           12131417.134       3482508.251       
S116_2           12131428.851       3482506.830       
S116_2           12131453.208       3482481.124       
S116_2           12131460.952       3482493.405       
S116_2           12131467.650       3482546.784       
S116_2           12131498.842       3482575.668       
S116_2           12131505.003       3482629.585       
S116_2           12131513.285       3482651.341       
S116_2           12131521.137       3482663.515       
S116_2           12131553.336       3482781.508       
S116_2           12131561.745       3482792.909       
S116_2           12131573.479       3482797.974       
S116_2           12131602.227       3482793.789       
S116_2           12131633.986       3482800.986       
S116_2           12131683.502       3482801.533       
S116_2           12131697.837       3482785.829       
S116_2           12131742.298       3482773.871       
S116_2           12131798.161       3482797.016       
S116_2           12131806.460       3482803.221       
S116_2           12131775.844       3482717.006       
S116_2           12131802.536       3482570.374       
S116_3           12131360.781       3482425.031       
S116_3           12131335.850       3482433.114       
S116_3           12131350.371       3482443.781       
S116_3           12131360.717       3482462.379       
S116_3           12131343.722       3482530.748       
S116_3           12131361.372       3482592.985       
S116_3           12131363.093       3482621.303       
S116_3           12131410.771       3482608.924       
S116_3           12131420.236       3482599.439       
S116_3           12131419.268       3482584.918       
S116_3           12131393.131       3482511.162       
S116_3           12131417.134       3482508.251       
S116_3           12131397.427       3482437.814       
S116_3           12131392.514       3482428.502       
S116_3           12131388.644       3482418.533       
S116_3           12131360.781       3482425.031       


[SYMBOLS]
;;Gage           X-Coord            Y-Coord           
;;-------------- ------------------ ------------------


[PROFILES]
;;Name           Links     
;;-------------- ----------
"around_the_horn " r1 13207 23564 15119 15115
"around_the_horn " 11883 15192 23491 14293 23496
"around_the_horn " 23501 23506 21065 14264 15204
"around_the_horn " 23493 15156 23560 14838 14632
"around_the_horn " 13752 14352
