[TITLE]
;;Project Title/Notes
Notes about this full featured model 
More notes
{ADAM ADAM  - 2018.03.07} CSO-195 Seperation Project:  Modified baseflow and 
Evapotransportation: changed back to monthly averages (from TimeS)
; Notes with , commas , for a test
more notes


[OPTIONS]
;;Option             Value
FLOW_UNITS           CFS
INFILTRATION         HORTON ; comment about this 
FLOW_ROUTING         DYNWAVE
LINK_OFFSETS         DEPTH
MIN_SLOPE            0
ALLOW_PONDING        NO
SKIP_STEADY_STATE    NO

START_DATE           11/01/2015
START_TIME           00:00:00
REPORT_START_DATE    11/01/2015
REPORT_START_TIME    00:00:00
END_DATE             11/04/2015
END_TIME             00:00:00
SWEEP_START          01/01
SWEEP_END            12/31
DRY_DAYS             0
REPORT_STEP          00:01:00
WET_STEP             00:05:00
DRY_STEP             00:05:00
ROUTING_STEP         0:00:01 

INERTIAL_DAMPING     NONE
NORMAL_FLOW_LIMITED  BOTH
FORCE_MAIN_EQUATION  H-W
VARIABLE_STEP        0.75
LENGTHENING_STEP     0
MIN_SURFAREA         12.557
MAX_TRIALS           8
HEAD_TOLERANCE       0.005
SYS_FLOW_TOL         5
LAT_FLOW_TOL         5
MINIMUM_STEP         0.5
THREADS              1

[EVAPORATION]
;;Data Source    Parameters
;;-------------- ----------------
CONSTANT         0.0
DRY_ONLY         NO

[RAINGAGES]
;;Name           Format    Interval SCF      Source    
;;-------------- --------- ------ ------ ----------
SCS_24h_Type_I_1in INTENSITY 0:15     1.0      TIMESERIES SCS_24h_Type_I_1in

[SUBCATCHMENTS]
;;Name           Rain Gage        Outlet           Area     %Imperv  Width    %Slope   CurbLen  SnowPack        
;;-------------- ---------------- ---------------- -------- -------- -------- -------- -------- ----------------
S1               SCS_24h_Type_I_1in J1               3        30       500      0.5      0                        
S2               SCS_24h_Type_I_1in 2                2        100      500      0.5      0                        
S3               SCS_24h_Type_I_1in j3               3        100      500      0.5      0                        
S4               SCS_24h_Type_I_1in 1                20       25       500      0.5      0                        

[SUBAREAS]
;;Subcatchment   N-Imperv   N-Perv     S-Imperv   S-Perv     PctZero    RouteTo    PctRouted 
;;-------------- ---------- ---------- ---------- ---------- ---------- ---------- ----------
S1               0.01       0.1        0.05       0.05       25         OUTLET    
S2               0.01       0.1        0.05       0.05       25         OUTLET    
S3               0.01       0.1        0.05       0.05       25         OUTLET    
S4               0.01       0.1        0.05       0.05       25         OUTLET    

[INFILTRATION]
;;Subcatchment   MaxRate    MinRate    Decay      DryTime    MaxInfil  
;;-------------- ---------- ---------- ---------- ---------- ----------
S1               2.5        0.4        3          6          0         
S2               2.5        0.4        3          6          0         
S3               3          0.5        4          7          0         
S4               2.5        0.4        3          6          0         

[JUNCTIONS]
;;Name           Elevation  MaxDepth   InitDepth  SurDepth   Aponded   
;;-------------- ---------- ---------- ---------- ---------- ----------
J3               6.547      15         0          0          0         
1                17         0          0          0          0         
2                17         0          0          0          0         
3                16.5       0          0          0          0         
4                16         0          0          0          0         
5                15         0          0          0          0         
J2               13.0       15         0          0          0         

[OUTFALLS]
;;Name           Elevation  Type       Stage Data       Gated    Route To        
;;-------------- ---------- ---------- ---------------- -------- ----------------
J4               0          FREE                        NO                       

[STORAGE]
;;Name           Elev.    MaxDepth   InitDepth  Shape      Curve Name/Params            N/A      Fevap    Psi      Ksat     IMD     
;;-------------- -------- ---------- ----------- ---------- ---------------------------- -------- --------          -------- --------
J1               13.392   15         0          FUNCTIONAL 1000      0         0        0        0       

[CONDUITS]
;;Name           From Node        To Node          Length     Roughness  InOffset   OutOffset  InitFlow   MaxFlow   
;;-------------- ---------------- ---------------- ---------- ---------- ---------- ---------- ---------- ----------
C1:C2            J1               J2               244.63     0.01       0          0          0          0         
C2.1             J2               J3               666        0.01       0          0          0          0         
1:4              1                4                400        0.01       0          0          0          0         
4:5              4                5                400        0.01       0          0          0          0         
5:J1             5                J1               400        0.01       0          0          0          0         
3:4              3                4                400        0.01       0          0          0          0         
2:5              2                5                400        0.01       0          0          0          0         

[PUMPS]
;;Name           From Node        To Node          Pump Curve       Status   Sartup Shutoff 
;;-------------- ---------------- ---------------- ---------------- ------ -------- --------
C2               J2               J3               P1_Curve         ON       0        0       

[WEIRS]
;;Name           From Node        To Node          Type         CrestHt    Qcoeff     Gated    EndCon   EndCoeff   Surcharge  RoadWidth  RoadSurf  
;;-------------- ---------------- ---------------- ------------ ---------- ---------- -------- -------- ---------- ---------- ---------- ----------
C3               J3               J4               TRANSVERSE   0          3.33       NO       0        0          NO        

[XSECTIONS]
;;Link           Shape        Geom1            Geom2      Geom3      Geom4      Barrels    Culvert   
;;-------------- ------------ ---------------- ---------- ---------- ---------- ---------- ----------
C1:C2            CIRCULAR     1                0          0          0          1                    
C2.1             CIRCULAR     1                0          0          0          1                    
1:4              CIRCULAR     1                0          0          0          1                    
4:5              CIRCULAR     1                0          0          0          1                    
5:J1             CIRCULAR     1                0          0          0          1                    
3:4              CIRCULAR     1                0          0          0          1                    
2:5              CIRCULAR     1                0          0          0          1                    
C3               RECT_OPEN    5                1          0          0         

[INFLOWS]
;;Node           Constituent      Time Series      Type     Mfactor  Sfactor  Baseline Pattern
;;-------------- ---------------- ---------------- -------- -------- -------- -------- --------
J3               Flow             ""               FLOW     1.0      1        1       
J2               FLOW             ""               FLOW     1.0      1        1       
J1               FLOW             ""               FLOW     1.0      1        1       

[CURVES]
;;Name           Type       X-Value    Y-Value   
;;-------------- ---------- ---------- ----------
;control curve
control-curve    Control    0          0         
control-curve               1          0.5       
control-curve               10         1.0       
;
diversion-curve  Diversion  0          0         
diversion-curve             1          10        
;
P1_Curve         Pump4      0          10        
P1_Curve                    5          20        
;
P2_Curve         Pump4      0          10        
P2_Curve                    1          20        
P2_Curve                    3          30        
;
;tenk sotrage curve 
tenk-sturage     Shape      0          0         
tenk-sturage                1          10        
tenk-sturage                2          30        
tenk-sturage                3          60        
tenk-sturage                10         60        
;
storage-curve    Storage    0          0         
storage-curve               1          100       
storage-curve               10         100       
;
tidal-curve      Tidal      0          1         
tidal-curve                 6          1.5       
tidal-curve                 12         2         
tidal-curve                 23         1         

[TIMESERIES]
;;Name           Date       Time       Value     
;;-------------- ---------- ---------- ----------
;SCS_24h_Type_I_1in design storm, total rainfall = 1 in, rain units = in/hr.
SCS_24h_Type_I_1in            0:00       0.0175    
SCS_24h_Type_I_1in            0:15       0.0175    
SCS_24h_Type_I_1in            0:30       0.0175    
SCS_24h_Type_I_1in            0:45       0.0175    
SCS_24h_Type_I_1in            1:00       0.0175    
SCS_24h_Type_I_1in            1:15       0.0175    
SCS_24h_Type_I_1in            1:30       0.0175    
SCS_24h_Type_I_1in            1:45       0.0175    
SCS_24h_Type_I_1in            2:00       0.0205    
SCS_24h_Type_I_1in            2:15       0.0205    
SCS_24h_Type_I_1in            2:30       0.0205    
SCS_24h_Type_I_1in            2:45       0.0205    
SCS_24h_Type_I_1in            3:00       0.0205    
SCS_24h_Type_I_1in            3:15       0.0205    
SCS_24h_Type_I_1in            3:30       0.0205    
SCS_24h_Type_I_1in            3:45       0.0205    
SCS_24h_Type_I_1in            4:00       0.0245    
SCS_24h_Type_I_1in            4:15       0.0245    
SCS_24h_Type_I_1in            4:30       0.0245    
SCS_24h_Type_I_1in            4:45       0.0245    
SCS_24h_Type_I_1in            5:00       0.0245    
SCS_24h_Type_I_1in            5:15       0.0245    
SCS_24h_Type_I_1in            5:30       0.0245    
SCS_24h_Type_I_1in            5:45       0.0245    
SCS_24h_Type_I_1in            6:00       0.031     
SCS_24h_Type_I_1in            6:15       0.031     
SCS_24h_Type_I_1in            6:30       0.031     
SCS_24h_Type_I_1in            6:45       0.031     
SCS_24h_Type_I_1in            7:00       0.038     
SCS_24h_Type_I_1in            7:15       0.038     
SCS_24h_Type_I_1in            7:30       0.038     
SCS_24h_Type_I_1in            7:45       0.038     
SCS_24h_Type_I_1in            8:00       0.05      
SCS_24h_Type_I_1in            8:15       0.05      
SCS_24h_Type_I_1in            8:30       0.07      
SCS_24h_Type_I_1in            8:45       0.07      
SCS_24h_Type_I_1in            9:00       0.098     
SCS_24h_Type_I_1in            9:15       0.098     
SCS_24h_Type_I_1in            9:30       0.236     
SCS_24h_Type_I_1in            9:45       0.612     
SCS_24h_Type_I_1in            10:00      0.136     
SCS_24h_Type_I_1in            10:15      0.136     
SCS_24h_Type_I_1in            10:30      0.082     
SCS_24h_Type_I_1in            10:45      0.082     
SCS_24h_Type_I_1in            11:00      0.06      
SCS_24h_Type_I_1in            11:15      0.06      
SCS_24h_Type_I_1in            11:30      0.06      
SCS_24h_Type_I_1in            11:45      0.052     
SCS_24h_Type_I_1in            12:00      0.048     
SCS_24h_Type_I_1in            12:15      0.048     
SCS_24h_Type_I_1in            12:30      0.042     
SCS_24h_Type_I_1in            12:45      0.042     
SCS_24h_Type_I_1in            13:00      0.042     
SCS_24h_Type_I_1in            13:15      0.042     
SCS_24h_Type_I_1in            13:30      0.038     
SCS_24h_Type_I_1in            13:45      0.038     
SCS_24h_Type_I_1in            14:00      0.0315    
SCS_24h_Type_I_1in            14:15      0.0315    
SCS_24h_Type_I_1in            14:30      0.0315    
SCS_24h_Type_I_1in            14:45      0.0315    
SCS_24h_Type_I_1in            15:00      0.0315    
SCS_24h_Type_I_1in            15:15      0.0315    
SCS_24h_Type_I_1in            15:30      0.0315    
SCS_24h_Type_I_1in            15:45      0.0315    
SCS_24h_Type_I_1in            16:00      0.024     
SCS_24h_Type_I_1in            16:15      0.024     
SCS_24h_Type_I_1in            16:30      0.024     
SCS_24h_Type_I_1in            16:45      0.024     
SCS_24h_Type_I_1in            17:00      0.024     
SCS_24h_Type_I_1in            17:15      0.024     
SCS_24h_Type_I_1in            17:30      0.024     
SCS_24h_Type_I_1in            17:45      0.024     
SCS_24h_Type_I_1in            18:00      0.024     
SCS_24h_Type_I_1in            18:15      0.024     
SCS_24h_Type_I_1in            18:30      0.024     
SCS_24h_Type_I_1in            18:45      0.024     
SCS_24h_Type_I_1in            19:00      0.024     
SCS_24h_Type_I_1in            19:15      0.024     
SCS_24h_Type_I_1in            19:30      0.024     
SCS_24h_Type_I_1in            19:45      0.024     
SCS_24h_Type_I_1in            20:00      0.0185    
SCS_24h_Type_I_1in            20:15      0.0185    
SCS_24h_Type_I_1in            20:30      0.0185    
SCS_24h_Type_I_1in            20:45      0.0185    
SCS_24h_Type_I_1in            21:00      0.0185    
SCS_24h_Type_I_1in            21:15      0.0185    
SCS_24h_Type_I_1in            21:30      0.0185    
SCS_24h_Type_I_1in            21:45      0.0185    
SCS_24h_Type_I_1in            22:00      0.0185    
SCS_24h_Type_I_1in            22:15      0.0185    
SCS_24h_Type_I_1in            22:30      0.0185    
SCS_24h_Type_I_1in            22:45      0.0185    
SCS_24h_Type_I_1in            23:00      0.0185    
SCS_24h_Type_I_1in            23:15      0.0185    
SCS_24h_Type_I_1in            23:30      0.0185    
SCS_24h_Type_I_1in            23:45      0.0185    
SCS_24h_Type_I_1in            24:00      0         

[REPORT]
;;Reporting Options
INPUT      YES
CONTROLS   YES
SUBCATCHMENTS NONE
NODES ALL
LINKS NONE

[TAGS]

[MAP]
DIMENSIONS 2746427.630 1117685.602 2748614.997 1119016.264
Units      Feet

[COORDINATES]
;;Node           X-Coord            Y-Coord           
;;-------------- ------------------ ------------------
J3               2748073.306        1117746.087       
1                2746913.127        1118559.809       
2                2747728.148        1118449.164       
3                2747242.131        1118656.381       
4                2747345.325        1118499.807       
5                2747386.555        1118362.817       
J2               2747514.212        1118016.207       
J4               2748515.571        1117763.466       
J1               2747402.678        1118092.704       

[VERTICES]
;;Link           X-Coord            Y-Coord           
;;-------------- ------------------ ------------------
C1:C2            2747446.992        1118044.900       
C2.1             2747634.497        1117846.256       
C2.1             2747834.998        1117744.149       

[Polygons]
;;Subcatchment   X-Coord            Y-Coord           
;;-------------- ------------------ ------------------
S1               2746954.580        1118179.306       
S1               2747306.004        1117998.644       
S1               2747284.350        1118423.694       
S1               2746979.947        1118463.291       
S2               2747840.565        1118007.306       
S2               2748063.299        1118230.039       
S2               2747405.616        1118921.132       
S2               2747078.940        1118955.779       
S2               2747430.364        1118537.535       
S2               2747492.234        1118089.594       
S3               2748103.514        1118193.536       
S3               2747848.608        1117921.306       
S3               2748088.665        1117782.716       
S3               2748242.104        1117782.716       
S3               2748511.859        1117807.464       
S4               2746913.127        1118252.931       
S4               2746942.825        1118500.413       
S4               2747192.781        1118468.241       
S4               2747168.033        1118599.406       
S4               2747088.839        1118755.319       
S4               2746741.127        1118938.456       
S4               2746527.056        1118812.240       
S4               2746551.804        1118480.615       

[SYMBOLS]
;;Gage           X-Coord            Y-Coord           
;;-------------- ------------------ ------------------

