
[TITLE]

[OPTIONS]

[FILES]

[RAINGAGES]

[LOSSES]

[CONDUITS]

[INFILTRATION]

[JUNCTIONS]

[DWF]

[ORIFICES]

[OUTFALLS]

[PUMPS]

[STORAGE]

[SUBCATCHMENTS]

[SUBAREAS]

[WEIRS]

[XSECTIONS]

[COORDINATES]

[VERTICES]

[Polygons]

[MAP]

[REPORT]

[TAGS]
