

[OPTIONS]
;;                    Value        ;   Comment Origin                              
ALLOW_PONDING         NO           ;   Added   model_full_features_network_xy.inp
DRY_DAYS              0            ;   Added   model_full_features_network_xy.inp
DRY_STEP              00:05:00     ;   Added   model_full_features_network_xy.inp
END_DATE              11/04/2015   ;   Added   model_full_features_network_xy.inp
END_TIME              00:00:00     ;   Added   model_full_features_network_xy.inp
FLOW_ROUTING          DYNWAVE      ;   Added   model_full_features_network_xy.inp
FLOW_UNITS            CFS          ;   Added   model_full_features_network_xy.inp
FORCE_MAIN_EQUATION   H-W          ;   Added   model_full_features_network_xy.inp
HEAD_TOLERANCE        0.005        ;   Added   model_full_features_network_xy.inp
INERTIAL_DAMPING      NONE         ;   Added   model_full_features_network_xy.inp
INFILTRATION          HORTON       ;   Added   model_full_features_network_xy.inp
LAT_FLOW_TOL          5            ;   Added   model_full_features_network_xy.inp
LENGTHENING_STEP      0            ;   Added   model_full_features_network_xy.inp
LINK_OFFSETS          DEPTH        ;   Added   model_full_features_network_xy.inp
MAX_TRIALS            8            ;   Added   model_full_features_network_xy.inp
MINIMUM_STEP          0.5          ;   Added   model_full_features_network_xy.inp
MIN_SLOPE             0            ;   Added   model_full_features_network_xy.inp
MIN_SURFAREA          12.557       ;   Added   model_full_features_network_xy.inp
NORMAL_FLOW_LIMITED   BOTH         ;   Added   model_full_features_network_xy.inp
REPORT_START_DATE     11/01/2015   ;   Added   model_full_features_network_xy.inp
REPORT_START_TIME     00:00:00     ;   Added   model_full_features_network_xy.inp
REPORT_STEP           00:01:00     ;   Added   model_full_features_network_xy.inp
ROUTING_STEP          0:00:01      ;   Added   model_full_features_network_xy.inp
SKIP_STEADY_STATE     NO           ;   Added   model_full_features_network_xy.inp
START_DATE            11/01/2015   ;   Added   model_full_features_network_xy.inp
START_TIME            00:00:00     ;   Added   model_full_features_network_xy.inp
SWEEP_END             12/31        ;   Added   model_full_features_network_xy.inp
SWEEP_START           01/01        ;   Added   model_full_features_network_xy.inp
SYS_FLOW_TOL          5            ;   Added   model_full_features_network_xy.inp
THREADS               1            ;   Added   model_full_features_network_xy.inp
VARIABLE_STEP         0.75         ;   Added   model_full_features_network_xy.inp
WET_STEP              00:05:00     ;   Added   model_full_features_network_xy.inp
ALLOW_PONDING         NO           ;   Added   model_full_features_b.inp         
DRY_DAYS              0            ;   Added   model_full_features_b.inp         
DRY_STEP              00:05:00     ;   Added   model_full_features_b.inp         
END_DATE              11/04/2015   ;   Added   model_full_features_b.inp         
END_TIME              00:00:00     ;   Added   model_full_features_b.inp         
FLOW_ROUTING          DYNWAVE      ;   Added   model_full_features_b.inp         
FLOW_UNITS            CFS          ;   Added   model_full_features_b.inp         
FORCE_MAIN_EQUATION   H-W          ;   Added   model_full_features_b.inp         
HEAD_TOLERANCE        0.005        ;   Added   model_full_features_b.inp         
INERTIAL_DAMPING      NONE         ;   Added   model_full_features_b.inp         
INFILTRATION          GREEN_AMPT   ;   Added   model_full_features_b.inp         
LAT_FLOW_TOL          5            ;   Added   model_full_features_b.inp         
LENGTHENING_STEP      0            ;   Added   model_full_features_b.inp         
LINK_OFFSETS          DEPTH        ;   Added   model_full_features_b.inp         
MAX_TRIALS            8            ;   Added   model_full_features_b.inp         
MINIMUM_STEP          0.5          ;   Added   model_full_features_b.inp         
MIN_SLOPE             0            ;   Added   model_full_features_b.inp         
MIN_SURFAREA          12.557       ;   Added   model_full_features_b.inp         
NORMAL_FLOW_LIMITED   BOTH         ;   Added   model_full_features_b.inp         
REPORT_START_DATE     11/01/2015   ;   Added   model_full_features_b.inp         
REPORT_START_TIME     00:00:00     ;   Added   model_full_features_b.inp         
REPORT_STEP           00:01:00     ;   Added   model_full_features_b.inp         
ROUTING_STEP          0:00:01      ;   Added   model_full_features_b.inp         
SKIP_STEADY_STATE     NO           ;   Added   model_full_features_b.inp         
START_DATE            11/01/2015   ;   Added   model_full_features_b.inp         
START_TIME            00:00:00     ;   Added   model_full_features_b.inp         
SWEEP_END             12/31        ;   Added   model_full_features_b.inp         
SWEEP_START           01/01        ;   Added   model_full_features_b.inp         
SYS_FLOW_TOL          5            ;   Added   model_full_features_b.inp         
THREADS               1            ;   Added   model_full_features_b.inp         
VARIABLE_STEP         0.75         ;   Added   model_full_features_b.inp         
WET_STEP              00:05:00     ;   Added   model_full_features_b.inp         



[RAINGAGES]
;;                   RainType    TimeIntrvl SnowCatch DataSource   DataSourceName       ;   Comment Origin                              
SCS_24h_Type_I_1in   INTENSITY   0:15       1.0       TIMESERIES   SCS_24h_Type_I_1in   ;   Added   model_full_features_network_xy.inp
SCS_24h_Type_I_1in   INTENSITY   0:15       1.0       TIMESERIES   SCS_24h_Type_I_1in   ;   Added   model_full_features_b.inp         



[CONDUITS]
;;        InletNode OutletNode Length   ManningN InletOffset OutletOffset InitFlow MaxFlow ;   Comment Origin                              
1:4       1         4          400.0    0.01    0           0            0        0        ;   Added   model_full_features_network_xy.inp
2:5       2         5          400.0    0.01    0           0            0        0        ;   Added   model_full_features_network_xy.inp
3:4       3         4          400.0    0.01    0           0            0        0        ;   Added   model_full_features_network_xy.inp
4:5       4         5          400.0    0.01    0           0            0        0        ;   Added   model_full_features_network_xy.inp
5:J1      5         J1         400.0    0.01    0           0            0        0        ;   Added   model_full_features_network_xy.inp
C1:C2     J1        J2         244.63   0.01    0           0            0        0        ;   Added   model_full_features_network_xy.inp
C2.1      J2        J3         666.0    0.01    0           0            0        0        ;   Added   model_full_features_network_xy.inp
1_b       1_b       4_b        400.0    0.01    0           0            0        0        ;   Added   model_full_features_b.inp         
2_b       4_b       5_b        400.0    0.01    0           0            0        0        ;   Added   model_full_features_b.inp         
3_b       5_b       J1_b       400.0    0.01    0           0            0        0        ;   Added   model_full_features_b.inp         
4_b       3_b       4_b        400.0    0.01    0           0            0        0        ;   Added   model_full_features_b.inp         
5_b       2_b       5_b        400.0    0.01    0           0            0        0        ;   Added   model_full_features_b.inp         
C1:C2_b   J1_b      J2_b       244.63   0.01    0           0            0        0        ;   Added   model_full_features_b.inp         
C2.1_b    J2_b      J3_b       666.0    0.01    0           0            0        0        ;   Added   model_full_features_b.inp         



[INFILTRATION]
;;     Suction HydCon IMDmax ;   Comment Origin                              
S1     3.0     0.5   4       ;   Added   model_full_features_network_xy.inp
S2     3.0     0.5   4       ;   Added   model_full_features_network_xy.inp
S3     3.0     0.5   4       ;   Added   model_full_features_network_xy.inp
S4     3.0     0.5   4       ;   Added   model_full_features_network_xy.inp
S1_b   3.0     0.5   4       ;   Added   model_full_features_b.inp         
S2_b   3.0     0.5   4       ;   Added   model_full_features_b.inp         
S3_b   3.0     0.5   4       ;   Added   model_full_features_b.inp         
S4_b   3.0     0.5   4       ;   Added   model_full_features_b.inp         



[JUNCTIONS]
;;     InvertElev           MaxDepth InitDepth SurchargeDepth PondedArea ;   Comment Origin                              
1      17.0                0        0         0              0           ;   Added   model_full_features_network_xy.inp
2      17.0                0        0         0              0           ;   Added   model_full_features_network_xy.inp
3      16.5                0        0         0              0           ;   Added   model_full_features_network_xy.inp
4      16.0                0        0         0              0           ;   Added   model_full_features_network_xy.inp
5      15.0                0        0         0              0           ;   Added   model_full_features_network_xy.inp
J2     13.0                15       0         0              0           ;   Added   model_full_features_network_xy.inp
J3     6.5470000000000015  15       0         0              0           ;   Added   model_full_features_network_xy.inp
1_b    17.0                0        0         0              0           ;   Added   model_full_features_b.inp         
2_b    17.0                0        0         0              0           ;   Added   model_full_features_b.inp         
3_b    16.5                0        0         0              0           ;   Added   model_full_features_b.inp         
4_b    16.0                0        0         0              0           ;   Added   model_full_features_b.inp         
5_b    15.0                0        0         0              0           ;   Added   model_full_features_b.inp         
J2_b   13.0                15       0         0              0           ;   Added   model_full_features_b.inp         
J3_b   6.5470000000000015  15       0         0              0           ;   Added   model_full_features_b.inp         



[OUTFALLS]
;;     InvertElev OutfallType StageOrTimeseries TideGate ;   Comment Origin                              
J4    0           FREE        NO                         ;   Added   model_full_features_network_xy.inp
J4_b  0           FREE        NO                         ;   Added   model_full_features_b.inp         



[PUMPS]
;;     InletNode OutletNode PumpCurve  InitStatus Depth ShutoffDepth ;   Comment Origin                              
C2     J2        J3         P1_Curve   ON        0     0             ;   Added   model_full_features_network_xy.inp
C2_b   J2_b      J3_b       P1_Curve   ON        0     0             ;   Added   model_full_features_b.inp         



[STORAGE]
;;     InvertElev MaxD InitDepth StorageCurve Coefficient Exponent Constant PondedArea EvapFrac SuctionHead Conductivity InitialDeficit ;   Comment Origin                              
J1     13.392    15   0          FUNCTIONAL  1000        0        0        0          0                                                 ;   Added   model_full_features_network_xy.inp
J1_b   13.392    15   0          FUNCTIONAL  1000        0        0        0          0                                                 ;   Added   model_full_features_b.inp         



[SUBCATCHMENTS]
;;     Raingage             Outlet Area PercImperv Width PercSlope CurbLength SnowPack ;   Comment Origin                              
S1     SCS_24h_Type_I_1in   J1    3    30         500    0.5      0                    ;   Added   model_full_features_network_xy.inp
S2     SCS_24h_Type_I_1in   2     2    100        500    0.5      0                    ;   Added   model_full_features_network_xy.inp
S3     SCS_24h_Type_I_1in   j3    3    100        500    0.5      0                    ;   Added   model_full_features_network_xy.inp
S4     SCS_24h_Type_I_1in   1     20   25         500    0.5      0                    ;   Added   model_full_features_network_xy.inp
S1_b   SCS_24h_Type_I_1in   J1_b  3    30         500    0.5      0                    ;   Added   model_full_features_b.inp         
S2_b   SCS_24h_Type_I_1in   2_b   2    100        500    0.5      0                    ;   Added   model_full_features_b.inp         
S3_b   SCS_24h_Type_I_1in   J3_b  3    100        500    0.5      0                    ;   Added   model_full_features_b.inp         
S4_b   SCS_24h_Type_I_1in   1_b   20   25         500    0.5      0                    ;   Added   model_full_features_b.inp         



[SUBAREAS]
;;     N-Imperv N-Perv S-Imperv S-Perv PctZero RouteTo  PctRouted ;   Comment Origin                              
S1     0.01     0.1    0.05     0.05  25       OUTLET             ;   Added   model_full_features_network_xy.inp
S2     0.01     0.1    0.05     0.05  25       OUTLET             ;   Added   model_full_features_network_xy.inp
S3     0.01     0.1    0.05     0.05  25       OUTLET             ;   Added   model_full_features_network_xy.inp
S4     0.01     0.1    0.05     0.05  25       OUTLET             ;   Added   model_full_features_network_xy.inp
S1_b   0.01     0.1    0.05     0.05  25       OUTLET             ;   Added   model_full_features_b.inp         
S2_b   0.01     0.1    0.05     0.05  25       OUTLET             ;   Added   model_full_features_b.inp         
S3_b   0.01     0.1    0.05     0.05  25       OUTLET             ;   Added   model_full_features_b.inp         
S4_b   0.01     0.1    0.05     0.05  25       OUTLET             ;   Added   model_full_features_b.inp         



[WEIRS]
;;     InletNode OutletNode WeirType     CrestHeight DischCoeff FlapGate EndCon EndCoeff Surcharge RoadWidth RoadSurf ;   Comment Origin                              
C3     J3        J4         TRANSVERSE  0            3.33       NO      0      0         NO                           ;   Added   model_full_features_network_xy.inp
C3_b   J3_b      J4_b       TRANSVERSE  0            3.33       NO      0      0         NO                           ;   Added   model_full_features_b.inp         



[XSECTIONS]
;;        Shape       Geom1 Geom2 Geom3 Geom4 Barrels ;   Comment Origin                              
1:4       CIRCULAR   1     0     0     0         1    ;   Added   model_full_features_network_xy.inp
2:5       CIRCULAR   1     0     0     0         1    ;   Added   model_full_features_network_xy.inp
3:4       CIRCULAR   1     0     0     0         1    ;   Added   model_full_features_network_xy.inp
4:5       CIRCULAR   1     0     0     0         1    ;   Added   model_full_features_network_xy.inp
5:J1      CIRCULAR   1     0     0     0         1    ;   Added   model_full_features_network_xy.inp
C1:C2     CIRCULAR   1     0     0     0         1    ;   Added   model_full_features_network_xy.inp
C2.1      CIRCULAR   1     0     0     0         1    ;   Added   model_full_features_network_xy.inp
C3        RECT_OPEN  5     1     0     0              ;   Added   model_full_features_network_xy.inp
1_b       CIRCULAR   1     0     0     0         1    ;   Added   model_full_features_b.inp         
2_b       CIRCULAR   1     0     0     0         1    ;   Added   model_full_features_b.inp         
3_b       CIRCULAR   1     0     0     0         1    ;   Added   model_full_features_b.inp         
4_b       CIRCULAR   1     0     0     0         1    ;   Added   model_full_features_b.inp         
5_b       CIRCULAR   1     0     0     0         1    ;   Added   model_full_features_b.inp         
C1:C2_b   CIRCULAR   1     0     0     0         1    ;   Added   model_full_features_b.inp         
C2.1_b    CIRCULAR   1     0     0     0         1    ;   Added   model_full_features_b.inp         
C3_b      RECT_OPEN  5     1     0     0              ;   Added   model_full_features_b.inp         



[COORDINATES]
;;     X                    Y             ;   Comment Origin                              
1      2746913.127          1118559.809   ;   Added   model_full_features_network_xy.inp
2      2747728.148          1118449.164   ;   Added   model_full_features_network_xy.inp
3      2747242.131          1118656.381   ;   Added   model_full_features_network_xy.inp
4      2747345.325          1118499.807   ;   Added   model_full_features_network_xy.inp
5      2747386.555          1118362.817   ;   Added   model_full_features_network_xy.inp
J1     2747402.6780000003   1118092.704   ;   Added   model_full_features_network_xy.inp
J2     2747514.212          1118016.207   ;   Added   model_full_features_network_xy.inp
J3     2748073.3060000003   1117746.087   ;   Added   model_full_features_network_xy.inp
J4     2748515.5710000005   1117763.466   ;   Added   model_full_features_network_xy.inp
1_b    2747885.899          1119438.429   ;   Added   model_full_features_b.inp         
2_b    2748406.8210000005   1118801.922   ;   Added   model_full_features_b.inp         
3_b    2748192.455          1119284.828   ;   Added   model_full_features_b.inp         
4_b    2748161.234          1119099.924   ;   Added   model_full_features_b.inp         
5_b    2748098.023          1118971.586   ;   Added   model_full_features_b.inp         
J1_b   2747925.7010000004   1118762.957   ;   Added   model_full_features_b.inp         
J2_b   2747955.166          1118630.959   ;   Added   model_full_features_b.inp         
J3_b   2748180.124          1118052.215   ;   Added   model_full_features_b.inp         
J4_b   2748515.5710000005   1117763.466   ;   Added   model_full_features_b.inp         



[VERTICES]
;;        X             Y             ;   Comment Origin                              
C1:C2     2747446.992   1118044.9     ;   Added   model_full_features_network_xy.inp
C2.1      2747634.497   1117846.256   ;   Added   model_full_features_network_xy.inp
C2.1      2747834.998   1117744.149   ;   Added   model_full_features_network_xy.inp
C1:C2_b   2747925.54    1118697.773   ;   Added   model_full_features_b.inp         
C2.1_b    2747927.332   1118424.617   ;   Added   model_full_features_b.inp         
C2.1_b    2748004.436   1118213.237   ;   Added   model_full_features_b.inp         



[Polygons]
;;     X                    Y                    ;   Comment Origin                              
S1     2746954.58           1118179.306          ;   Added   model_full_features_network_xy.inp
S1     2747306.004          1117998.644          ;   Added   model_full_features_network_xy.inp
S1     2747284.35           1118423.694          ;   Added   model_full_features_network_xy.inp
S1     2746979.947          1118463.291          ;   Added   model_full_features_network_xy.inp
S2     2747840.565          1118007.306          ;   Added   model_full_features_network_xy.inp
S2     2748063.299          1118230.039          ;   Added   model_full_features_network_xy.inp
S2     2747405.6160000004   1118921.132          ;   Added   model_full_features_network_xy.inp
S2     2747078.94           1118955.779          ;   Added   model_full_features_network_xy.inp
S2     2747430.364          1118537.535          ;   Added   model_full_features_network_xy.inp
S2     2747492.234          1118089.594          ;   Added   model_full_features_network_xy.inp
S3     2748103.514          1118193.5359999998   ;   Added   model_full_features_network_xy.inp
S3     2747848.608          1117921.306          ;   Added   model_full_features_network_xy.inp
S3     2748088.665          1117782.716          ;   Added   model_full_features_network_xy.inp
S3     2748242.104          1117782.716          ;   Added   model_full_features_network_xy.inp
S3     2748511.859          1117807.4640000002   ;   Added   model_full_features_network_xy.inp
S4     2746913.127          1118252.931          ;   Added   model_full_features_network_xy.inp
S4     2746942.825          1118500.413          ;   Added   model_full_features_network_xy.inp
S4     2747192.7810000004   1118468.241          ;   Added   model_full_features_network_xy.inp
S4     2747168.0330000003   1118599.406          ;   Added   model_full_features_network_xy.inp
S4     2747088.839          1118755.319          ;   Added   model_full_features_network_xy.inp
S4     2746741.127          1118938.456          ;   Added   model_full_features_network_xy.inp
S4     2746527.0560000003   1118812.24           ;   Added   model_full_features_network_xy.inp
S4     2746551.8039999995   1118480.615          ;   Added   model_full_features_network_xy.inp
S1_b   2747656.864          1119131.763          ;   Added   model_full_features_b.inp         
S1_b   2747790.8510000003   1118760.031          ;   Added   model_full_features_b.inp         
S1_b   2748064.737          1119085.795          ;   Added   model_full_features_b.inp         
S1_b   2747869.0            1119322.261          ;   Added   model_full_features_b.inp         
S2_b   2748187.887          1118401.991          ;   Added   model_full_features_b.inp         
S2_b   2748502.683          1118413.138          ;   Added   model_full_features_b.inp         
S2_b   2748492.539          1119367.106          ;   Added   model_full_features_b.inp         
S2_b   2748277.131          1119615.132          ;   Added   model_full_features_b.inp         
S2_b   2748249.173          1119069.563          ;   Added   model_full_features_b.inp         
S2_b   2747989.108          1118699.636          ;   Added   model_full_features_b.inp         
S3_b   2748507.2260000003   1118359.017          ;   Added   model_full_features_b.inp         
S3_b   2748135.151          1118333.584          ;   Added   model_full_features_b.inp         
S3_b   2748216.33           1118068.547          ;   Added   model_full_features_b.inp         
S3_b   2748328.6            1117963.957          ;   Added   model_full_features_b.inp         
S3_b   2748542.8460000004   1117798.189          ;   Added   model_full_features_b.inp         
S4_b   2747676.719          1119213.89           ;   Added   model_full_features_b.inp         
S4_b   2747867.142          1119374.727          ;   Added   model_full_features_b.inp         
S4_b   2748028.102          1119180.807          ;   Added   model_full_features_b.inp         
S4_b   2748099.402          1119293.648          ;   Added   model_full_features_b.inp         
S4_b   2748147.733          1119461.71           ;   Added   model_full_features_b.inp         
S4_b   2748018.149          1119832.723          ;   Added   model_full_features_b.inp         
S4_b   2747775.482          1119886.291          ;   Added   model_full_features_b.inp         
S4_b   2747567.541          1119626.7759999998   ;   Added   model_full_features_b.inp         



[MAP]
;;           x1            y1           x2           y2           ;   Comment Origin                              
DIMENSIONS   2746427.630  1.11769e+06  2.74861e+06  1.11902e+06   ;   Added   model_full_features_network_xy.inp
Units        Feet                                                 ;   Added   model_full_features_network_xy.inp
DIMENSIONS   2747518.776  1.11766e+06  2.74859e+06  1.11999e+06   ;   Added   model_full_features_b.inp         
Units        Feet                                                 ;   Added   model_full_features_b.inp         



[REPORT]
;;              Status ;   Comment Origin                              
CONTROLS        YES    ;   Added   model_full_features_network_xy.inp
INPUT           YES    ;   Added   model_full_features_network_xy.inp
LINKS           NONE   ;   Added   model_full_features_network_xy.inp
NODES           ALL    ;   Added   model_full_features_network_xy.inp
SUBCATCHMENTS   NONE   ;   Added   model_full_features_network_xy.inp
CONTROLS        YES    ;   Added   model_full_features_b.inp         
INPUT           YES    ;   Added   model_full_features_b.inp         
LINKS           NONE   ;   Added   model_full_features_b.inp         
NODES           ALL    ;   Added   model_full_features_b.inp         
SUBCATCHMENTS   NONE   ;   Added   model_full_features_b.inp         

